$
$ EXECUTIVE CONTROL DECK
$
SOL 103 $ Linear Static Solution
CEND

$
$ CASE CONTROL DECK
$

$ OUTPUT REQUEST
DISPLACEMENT(PLOT) = ALL $ Request Displacement on all grids
STRESS(PLOT) = ALL       $ Request Stress on all elements

$ LOAD CASE DEFINITION
SPC = 1   $ Call SID=1 SPC's for all SUBCASES
METHOD = 1
SUBCASE 1 $ Definition of first SUBCASE
LOAD = 1  $ Call SID=1 loads only for SUBCASE 1 

SUBCASE 2 $ Definition of first SUBCASE
LOAD = 2  $ Call SID=2 loads only for SUBCASE 2

BEGIN BULK
PARAM, POST, -1
$------><------><------><------><------><------><------>
EIGR           1LAN           0.                       8
+       MASS
$------><--ID--><--CP--><--X1--><--X2--><--X3--><------><------><------><------>
GRID          1            0.      0.      0.
GRID          2           50.      0.      0.
GRID          3           65.      0.      0.
GRID          4           50.     75.      0.
GRID          5           65.     75.      0.
GRID          6           50.     150.     0.
GRID          7           65.     150.     0.
GRID          8           65.     165.     0.
GRID          9          115.     150.     0.
GRID         10          115.     165.     0.
GRID         11          165.     150.     0.
GRID         12          165.     165.     0.
$------><-EID--><-PID--><--G1--><--G2--><------><------><------><------><------>
CROD          1       3       1       6
CROD          2       1       2       3
CROD          3       2       2       4
CROD          4       1       2       5
CROD          5       2       3       5
CROD          6       1       4       5
CROD          7       2       4       6
CROD          8       1       5       6
CROD          9       2       5       7
CROD         10       2       6       7
CROD         11       2       6       8
CROD         12       2       7       8
CROD         13       2       7       9
CROD         14       1       8       9
CROD         15       2       8      10
CROD         16       1       9      10
CROD         17       2       9      11
CROD         18       1       9      12
CROD         19       2      10      12
CROD         20       2      11      12
$------><-PID--><-MID--><--A---><--J---><--C---><-NSM--><------><------><------>
PROD         1       1  176.714     0.
PROD         2       2   400.       0.
PROD         3       2  19.635      0.
$------><-MID--><--E---><--G---><--NU--><-RHO--><--A---><------><------><------>
MAT1         1   68000.            0.3  2.699-9
MAT1         2   210000.           0.3   7.85-9
$------><-SID--><--G1--><--C1--><--D1--><------><------><------>
SPC          1       1    123      0.
SPC          1       2    123      0.
SPC          1       3    123      0.
$------><-SID--><--G---><--CID-><--F---><--N1--><--N2--><--N3-->
FORCE        1      11           35000.    0.5  -0.86602    0.
$------><-SID--><--CID-><--A---><--N1--><--N2--><--N3--><--MB-->
GRAV       2      0       9800.    0.     -1.      0.
ENDDATA
